<?xml version="1.0" encoding="UTF-8"?>

<!-- generated on 2025-09-13 13:26:43 by Eclipse SUMO netconvert Version 1.24.0
<netconvertConfiguration xmlns:xsi="http://www.w3.org/2001/XMLSchema-instance" xsi:noNamespaceSchemaLocation="http://sumo.dlr.de/xsd/netconvertConfiguration.xsd">

    <input>
        <node-files value="nodes.xml"/>
        <edge-files value="edges.xml"/>
        <connection-files value="connections.add.xml"/>
    </input>

    <output>
        <output-file value="net.net.xml"/>
    </output>

    <junctions>
        <no-internal-links value="true"/>
    </junctions>

</netconvertConfiguration>
-->

<net version="1.20" junctionCornerDetail="5" limitTurnSpeed="5.50" xmlns:xsi="http://www.w3.org/2001/XMLSchema-instance" xsi:noNamespaceSchemaLocation="http://sumo.dlr.de/xsd/net_file.xsd">

    <location netOffset="300.00,300.00" convBoundary="0.00,0.00,600.00,600.00" origBoundary="-300.00,-300.00,300.00,300.00" projParameter="!"/>

    <edge id="E_in" from="E" to="J0" priority="3">
        <lane id="E_in_0" index="0" speed="16.70" length="300.00" shape="600.00,304.80 310.40,304.80"/>
        <lane id="E_in_1" index="1" speed="16.70" length="300.00" shape="600.00,301.60 310.40,301.60"/>
    </edge>
    <edge id="E_out" from="J0" to="E" priority="3">
        <lane id="E_out_0" index="0" speed="16.70" length="300.00" shape="310.40,295.20 600.00,295.20"/>
        <lane id="E_out_1" index="1" speed="16.70" length="300.00" shape="310.40,298.40 600.00,298.40"/>
    </edge>
    <edge id="N_in" from="N" to="J0" priority="3">
        <lane id="N_in_0" index="0" speed="16.70" length="300.00" shape="295.20,600.00 295.20,310.40"/>
        <lane id="N_in_1" index="1" speed="16.70" length="300.00" shape="298.40,600.00 298.40,310.40"/>
    </edge>
    <edge id="N_out" from="J0" to="N" priority="3">
        <lane id="N_out_0" index="0" speed="16.70" length="300.00" shape="304.80,310.40 304.80,600.00"/>
        <lane id="N_out_1" index="1" speed="16.70" length="300.00" shape="301.60,310.40 301.60,600.00"/>
    </edge>
    <edge id="S_in" from="S" to="J0" priority="3">
        <lane id="S_in_0" index="0" speed="16.70" length="300.00" shape="304.80,0.00 304.80,289.60"/>
        <lane id="S_in_1" index="1" speed="16.70" length="300.00" shape="301.60,0.00 301.60,289.60"/>
    </edge>
    <edge id="S_out" from="J0" to="S" priority="3">
        <lane id="S_out_0" index="0" speed="16.70" length="300.00" shape="295.20,289.60 295.20,0.00"/>
        <lane id="S_out_1" index="1" speed="16.70" length="300.00" shape="298.40,289.60 298.40,0.00"/>
    </edge>
    <edge id="W_in" from="W" to="J0" priority="3">
        <lane id="W_in_0" index="0" speed="16.70" length="300.00" shape="0.00,295.20 289.60,295.20"/>
        <lane id="W_in_1" index="1" speed="16.70" length="300.00" shape="0.00,298.40 289.60,298.40"/>
    </edge>
    <edge id="W_out" from="J0" to="W" priority="3">
        <lane id="W_out_0" index="0" speed="16.70" length="300.00" shape="289.60,304.80 0.00,304.80"/>
        <lane id="W_out_1" index="1" speed="16.70" length="300.00" shape="289.60,301.60 0.00,301.60"/>
    </edge>

    <tlLogic id="J0" type="static" programID="0" offset="0">
        <phase duration="41" state="GggGrrrrGggGrrrr"/>
        <phase duration="4"  state="yyyyrrrryyyyrrrr"/>
        <phase duration="41" state="rrrrGggGrrrrGggG"/>
        <phase duration="4"  state="rrrryyyyrrrryyyy"/>
    </tlLogic>

    <junction id="E" type="priority" x="600.00" y="300.00" incLanes="E_out_0 E_out_1" intLanes="" shape="600.00,300.00 600.00,293.60 600.00,300.00">
        <request index="0" response="0" foes="0"/>
    </junction>
    <junction id="J0" type="traffic_light" x="300.00" y="300.00" incLanes="N_in_0 N_in_1 E_in_0 E_in_1 S_in_0 S_in_1 W_in_0 W_in_1" intLanes="" shape="293.60,310.40 306.40,310.40 306.84,308.18 307.40,307.40 308.18,306.84 309.18,306.51 310.40,306.40 310.40,293.60 308.18,293.16 307.40,292.60 306.84,291.82 306.51,290.82 306.40,289.60 293.60,289.60 293.16,291.82 292.60,292.60 291.82,293.16 290.82,293.49 289.60,293.60 289.60,306.40 291.82,306.84 292.60,307.40 293.16,308.18 293.49,309.18">
        <request index="0"  response="0000000000000000" foes="1111001010110100"/>
        <request index="1"  response="0000110100001000" foes="1011110110111100"/>
        <request index="2"  response="0000000000000011" foes="0000001010010011"/>
        <request index="3"  response="0000000000000000" foes="1111001010110010"/>
        <request index="4"  response="0000101100001111" foes="0010101101001111"/>
        <request index="5"  response="1101101110001011" foes="1101101111001011"/>
        <request index="6"  response="0000100100110000" foes="0010100100110000"/>
        <request index="7"  response="0000101100001111" foes="0010101100101111"/>
        <request index="8"  response="0000000000000000" foes="1011010011110010"/>
        <request index="9"  response="0000100000001101" foes="1011110010111101"/>
        <request index="10" response="0000001100000000" foes="1001001100000010"/>
        <request index="11" response="0000000000000000" foes="1011001011110010"/>
        <request index="12" response="0000111100001011" foes="0100111100101011"/>
        <request index="13" response="1000101111011011" foes="1100101111011011"/>
        <request index="14" response="0011000000001001" foes="0011000000101001"/>
        <request index="15" response="0000111100001011" foes="0010111100101011"/>
    </junction>
    <junction id="N" type="priority" x="300.00" y="600.00" incLanes="N_out_0 N_out_1" intLanes="" shape="300.00,600.00 306.40,600.00 300.00,600.00">
        <request index="0" response="0" foes="0"/>
    </junction>
    <junction id="S" type="priority" x="300.00" y="0.00" incLanes="S_out_0 S_out_1" intLanes="" shape="300.00,0.00 293.60,0.00 300.00,0.00">
        <request index="0" response="0" foes="0"/>
    </junction>
    <junction id="W" type="priority" x="0.00" y="300.00" incLanes="W_out_0 W_out_1" intLanes="" shape="0.00,300.00 0.00,306.40 0.00,300.00">
        <request index="0" response="0" foes="0"/>
    </junction>

    <connection from="E_in" to="W_out" fromLane="0" toLane="0" tl="J0" linkIndex="4" dir="s" state="o"/>
    <connection from="E_in" to="S_out" fromLane="0" toLane="0" tl="J0" linkIndex="5" dir="l" state="o"/>
    <connection from="E_in" to="N_out" fromLane="1" toLane="1" tl="J0" linkIndex="6" dir="r" state="o"/>
    <connection from="E_in" to="W_out" fromLane="1" toLane="1" tl="J0" linkIndex="7" dir="s" state="o"/>
    <connection from="E_out" to="E_in" fromLane="1" toLane="1" dir="t" state="M"/>
    <connection from="N_in" to="S_out" fromLane="0" toLane="0" tl="J0" linkIndex="0" dir="s" state="O"/>
    <connection from="N_in" to="E_out" fromLane="0" toLane="0" tl="J0" linkIndex="1" dir="l" state="o"/>
    <connection from="N_in" to="W_out" fromLane="1" toLane="1" tl="J0" linkIndex="2" dir="r" state="o"/>
    <connection from="N_in" to="S_out" fromLane="1" toLane="1" tl="J0" linkIndex="3" dir="s" state="O"/>
    <connection from="N_out" to="N_in" fromLane="1" toLane="1" dir="t" state="M"/>
    <connection from="S_in" to="N_out" fromLane="0" toLane="0" tl="J0" linkIndex="8" dir="s" state="O"/>
    <connection from="S_in" to="W_out" fromLane="0" toLane="0" tl="J0" linkIndex="9" dir="l" state="o"/>
    <connection from="S_in" to="E_out" fromLane="1" toLane="1" tl="J0" linkIndex="10" dir="r" state="o"/>
    <connection from="S_in" to="N_out" fromLane="1" toLane="1" tl="J0" linkIndex="11" dir="s" state="O"/>
    <connection from="S_out" to="S_in" fromLane="1" toLane="1" dir="t" state="M"/>
    <connection from="W_in" to="E_out" fromLane="0" toLane="0" tl="J0" linkIndex="12" dir="s" state="o"/>
    <connection from="W_in" to="N_out" fromLane="0" toLane="0" tl="J0" linkIndex="13" dir="l" state="o"/>
    <connection from="W_in" to="S_out" fromLane="1" toLane="1" tl="J0" linkIndex="14" dir="r" state="o"/>
    <connection from="W_in" to="E_out" fromLane="1" toLane="1" tl="J0" linkIndex="15" dir="s" state="o"/>
    <connection from="W_out" to="W_in" fromLane="1" toLane="1" dir="t" state="M"/>

</net>
